20
Coordinates from ORCA-job c20_fullerene
  C   -0.38229261130913      1.57506938193481     -1.17818038477985
  C   -1.57243512484232      0.90325721105932     -0.72037216166045
  C   -1.57243684340993      0.90325644484416      0.72037461199830
  C   -0.38229486618459      1.57507009347175      1.17818057260955
  C   0.37437909943398      2.05473462922205     -0.00000043592034
  C   1.58904614304280      1.35936885522561     -0.00000074737531
  C   1.55534209246424      0.46338314216756      1.17855193598485
  C   0.38118825792273      0.66281398992006      1.95359364746420
  C   -0.38119215594206     -0.66281515362854      1.95359735314135
  C   -1.55534425577017     -0.46338522814567      1.17855418478068
  C   -1.58904376389419     -1.35936604276401      0.00000040380101
  C   -0.37437825796954     -2.05473384372823     -0.00000031102077
  C   0.38229268285029     -1.57506912014770      1.17818162092017
  C   1.57243733611887     -0.90325853386336      0.72037404730877
  C   1.57243767553839     -0.90325835586849     -0.72037473175913
  C   1.55534354148336      0.46338337839968     -1.17855531024732
  C   0.38119027089690      0.66281493140324     -1.95359698586265
  C   -0.38119035522609     -0.66281355744383     -1.95359513477430
  C   -1.55534225205715     -0.46338311206590     -1.17855231276189
  C   0.38229338685363     -1.57506910999249     -1.17817986184688
